*HEADING


**
**
*NODE
       1,       -94.20163726309161,       3.0303030000000017,                 5.652396
       2,          -94.20163726309161,          2.5468199309730504,          0.0
       3,          -94.20163726309161,          3.8134114084837565,          3.4030160906443596
       4,          -94.20163726309161,          4.225719266997715,          0.2576379122981609
       5,          -94.20163726309161,          1.4329917553294378,          3.2180958915315707
       6,       -94.20163726309161,   3.1086244689504383E-15,                 5.652396
       7,          -94.20163726309161,          10.0,          2.696059245721422
       8,       -94.20163726309161,                 6.060606,                 5.652396
       9,          -94.20163726309161,          1.5974380495773386,          0.40365222739017126
**
** MEMBRANE and STRUCTURAL ELEMENTS
**
*ELEMENT, TYPE=S4, ELSET=ELSET_MAT
       1,        1,        3,        7,        8
       2,        3,        1,        6,        5
       3,        2,        3,        5,        9
       6,        3,        2,        4,        7
**
** 
**
**
** 
**
**
** SECTION DATA
**
*SHELL SECTION, ELSET=ELSET_MAT, MATERIAL=MAT, DENSITY=0.
                     0.8,
**
** MATERIALS
**
**
**MAT
**
*MATERIAL, NAME=MAT
*DENSITY
                      1.,
*ELASTIC, TYPE=ISOTROPIC
                  40000.,                      0.3
**
** 
**
** 
** SETS
** 
*NSET, NSET=LOAD_SET
       2,
*NSET, NSET=DOF_3
       1,        6,        8
**
** STEPS
**
**
** STEP 1
**
*STEP, NAME=STEP-1
*STATIC
**
** CLOAD
**
*CLOAD
LOAD_SET,        3,                     -12792.985793827724
**
** BOUNDARY
**
*BOUNDARY, FIXED
DOF_3,        1,        6
*NODE PRINT
U,
*END STEP
