*HEADING


**
**
*NODE
       1,       -94.20163726309161,       3.0303030000000017,                 5.652396
       2,          -94.20163726309161,          2.8129183554688484,          0.5984960292922012
       3,          -94.20163726309161,          3.817418499247469,          1.9566098258832085
       4,          -94.20163726309161,          8.213603001248998,          0.0
       5,          -94.20163726309161,          1.3732097553289522,          2.122825908778322
       6,       -94.20163726309161,   3.1086244689504383E-15,                 5.652396
       7,          -94.20163726309161,          7.6963585096569815,          1.508174455033425
       8,       -94.20163726309161,                 6.060606,                 5.652396
       9,          -94.20163726309161,          -2.5,          0.0
**
** MEMBRANE and STRUCTURAL ELEMENTS
**
*ELEMENT, TYPE=S4, ELSET=ELSET_MAT
       1,        1,        3,        7,        8
       2,        3,        1,        6,        5
       3,        2,        3,        5,        9
       6,        3,        2,        4,        7
**
** 
**
**
** 
**
**
** SECTION DATA
**
*SHELL SECTION, ELSET=ELSET_MAT, MATERIAL=MAT, DENSITY=0.
                     0.8,
**
** MATERIALS
**
**
**MAT
**
*MATERIAL, NAME=MAT
*DENSITY
                      1.,
*ELASTIC, TYPE=ISOTROPIC
                  40000.,                      0.3
**
** 
**
** 
** SETS
** 
*NSET, NSET=LOAD_SET
       2,
*NSET, NSET=DOF_3
       1,        6,        8
**
** STEPS
**
**
** STEP 1
**
*STEP, NAME=STEP-1
*STATIC
**
** CLOAD
**
*CLOAD
LOAD_SET,        3,                     -12020.36058016481
**
** BOUNDARY
**
*BOUNDARY, FIXED
DOF_3,        1,        6
*NODE PRINT
U,
*END STEP
