*HEADING


**
**
*NODE
       1,       -94.20163726309161,       3.0303030000000017,                 5.652396
       2,          -94.20163726309161,          2.9182652741428354,          0.46355464172157546
       3,          -94.20163726309161,          2.094621384279386,          2.694842315581114
       4,          -94.20163726309161,          0.9275077820692479,          0.039143738971222586
       5,          -94.20163726309161,          0.8357613459991511,          3.7526649186407726
       6,       -94.20163726309161,   3.1086244689504383E-15,                 5.652396
       7,          -94.20163726309161,          6.8277489721353355,          2.7579580222239426
       8,       -94.20163726309161,                 6.060606,                 5.652396
       9,          -94.20163726309161,          -0.7924012810165266,          0.0
**
** MEMBRANE and STRUCTURAL ELEMENTS
**
*ELEMENT, TYPE=S4, ELSET=ELSET_MAT
       1,        1,        3,        7,        8
       2,        3,        1,        6,        5
       3,        2,        3,        5,        9
       6,        3,        2,        4,        7
**
** 
**
**
** 
**
**
** SECTION DATA
**
*SHELL SECTION, ELSET=ELSET_MAT, MATERIAL=MAT, DENSITY=0.
                     0.8,
**
** MATERIALS
**
**
**MAT
**
*MATERIAL, NAME=MAT
*DENSITY
                      1.,
*ELASTIC, TYPE=ISOTROPIC
                  40000.,                      0.3
**
** 
**
** 
** SETS
** 
*NSET, NSET=LOAD_SET
       2,
*NSET, NSET=DOF_3
       1,        6,        8
**
** STEPS
**
**
** STEP 1
**
*STEP, NAME=STEP-1
*STATIC
**
** CLOAD
**
*CLOAD
LOAD_SET,        3,                     -14550.965656473316
**
** BOUNDARY
**
*BOUNDARY, FIXED
DOF_3,        1,        6
*NODE PRINT
U,
*END STEP
